Version 4
SHEET 1 2888 680
WIRE 96 96 -432 96
WIRE 496 96 320 96
WIRE 752 96 496 96
WIRE -432 128 -432 96
WIRE 96 176 80 176
WIRE 368 176 320 176
WIRE 480 176 368 176
WIRE 576 176 480 176
WIRE 368 192 368 176
WIRE 576 192 576 176
WIRE 480 208 480 176
WIRE -432 240 -432 208
WIRE 96 256 48 256
WIRE 336 256 320 256
WIRE 48 288 48 256
WIRE 336 288 336 256
WIRE 368 288 368 272
WIRE 368 288 336 288
WIRE 480 288 480 272
WIRE 576 288 576 272
WIRE 368 304 368 288
WIRE 48 384 48 368
WIRE 368 400 368 384
FLAG -432 240 0
FLAG 480 288 0
FLAG 368 400 0
FLAG 80 176 0
FLAG 48 384 0
FLAG 576 288 0
FLAG 496 96 Delay
SYMBOL res 352 176 R0
SYMATTR InstName R2
SYMATTR Value 1Meg
SYMBOL res 352 288 R0
SYMATTR InstName R3
SYMATTR Value 681K
SYMBOL voltage -432 112 R0
WINDOW 123 24 146 Left 2
WINDOW 39 24 125 Left 2
SYMATTR Value PULSE(0 5 0 0 0 2 5)
SYMATTR InstName V1
SYMBOL res 32 272 R0
SYMATTR InstName R5
SYMATTR Value 191K
SYMBOL cap 464 208 R0
SYMATTR InstName C1
SYMATTR Value 0.1µ
SYMBOL SpecialFunctions\\LTC6994-1 208 176 R0
SYMATTR InstName U2
SYMBOL voltage 576 176 R0
WINDOW 123 0 0 Left 2
WINDOW 39 0 0 Left 2
SYMATTR InstName V4
SYMATTR Value 5
TEXT 72 -16 Left 2 ;TimerBOX : 1 Second Delay\nPositive Edge Only - Delay Mode
TEXT -466 424 Left 2 !.tran 10
